/*--------------------------------*- C++ -*----------------------------------*\
|                                                                             |
|    HiSA: High Speed Aerodynamic solver                                      |
|    Copyright (C) 2014-2017 Johan Heyns - CSIR, South Africa                 |
|    Copyright (C) 2014-2017 Oliver Oxtoby - CSIR, South Africa               |
|                                                                             |
\*---------------------------------------------------------------------------*/
FoamFile
{
    version     2.0;
    format      ascii;
    class       volScalarField;
    location    "0";
    object      omega;
}
// * * * * * * * * * * * * * * * * * * * * * * * * * * * * * * * * * * * * * //

dimensions      [0 0 -1 0 0 0 0];

internalField   uniform 5.4e6;  // = sqrt(k)/(C_mu^0.25 L), where C_mu = 0.09 and L = 1.0e-5

boundaryField
{
    "(BC2)"
    {
        type            omegaWallFunction;
        value           uniform 1e8;
    }
    "(BC1)"
    {
        type            turbulentMixingLengthFrequencyInlet;
        mixingLength    1.0e-5;
        value           $internalField;
    }
}


// ************************************************************************* //
